Version 4
SHEET 1 880 936
WIRE 64 -80 -128 -80
WIRE 64 -32 64 -80
WIRE -304 32 -320 32
WIRE -240 32 -304 32
WIRE -208 32 -240 32
WIRE -128 32 -128 -80
WIRE -128 32 -208 32
WIRE -80 32 -128 32
WIRE 240 32 208 32
WIRE 368 32 320 32
WIRE 448 32 368 32
WIRE 528 32 448 32
WIRE 576 32 528 32
WIRE 368 48 368 32
WIRE -304 128 -304 112
WIRE -80 128 -96 128
WIRE 368 128 208 128
WIRE 368 144 368 128
WIRE -96 224 -96 128
WIRE -96 224 -128 224
WIRE -80 224 -96 224
WIRE -128 240 -128 224
WIRE 32 288 16 288
WIRE -128 336 -128 304
WIRE -16 336 -128 336
WIRE 112 336 112 288
WIRE 112 336 -16 336
WIRE 64 480 -128 480
WIRE 64 528 64 480
WIRE -240 592 -240 32
WIRE -240 592 -320 592
WIRE -208 592 -240 592
WIRE -128 592 -128 480
WIRE -128 592 -208 592
WIRE -80 592 -128 592
WIRE 240 592 208 592
WIRE 368 592 320 592
WIRE 464 592 368 592
WIRE 528 592 464 592
WIRE 576 592 528 592
WIRE 368 608 368 592
WIRE -80 688 -96 688
WIRE 368 688 208 688
WIRE 368 704 368 688
WIRE -96 784 -96 688
WIRE -96 784 -128 784
WIRE -80 784 -96 784
WIRE -128 800 -128 784
WIRE 32 848 16 848
WIRE -128 896 -128 864
WIRE -16 896 -128 896
WIRE 112 896 112 848
WIRE 112 896 -16 896
FLAG -208 96 0
FLAG 448 96 0
FLAG -16 336 0
FLAG -304 128 0
FLAG 528 112 0
FLAG 16 288 0
FLAG 368 224 0
FLAG -208 656 0
FLAG 464 656 0
FLAG -16 896 0
FLAG 528 672 0
FLAG 16 848 0
FLAG 368 784 0
FLAG 576 32 5Vout
FLAG 576 592 3.3Vout
SYMBOL PowerProducts\\LTC3624 64 128 R0
SYMATTR InstName U1
SYMBOL cap -224 32 R0
SYMATTR InstName C1
SYMATTR Value 10µ
SYMBOL cap 432 32 R0
SYMATTR InstName C2
SYMATTR Value 47µ
SYMBOL ind 224 48 R270
WINDOW 0 32 56 VTop 2
WINDOW 3 5 56 VBottom 2
SYMATTR InstName L1
SYMATTR Value 3.3µ
SYMBOL voltage -304 16 R0
WINDOW 123 0 0 Left 0
WINDOW 39 0 0 Left 0
SYMATTR InstName V1
SYMATTR Value 12
SYMBOL cap -144 240 R0
SYMATTR InstName C3
SYMATTR Value 2.2µ
SYMBOL res 512 16 R0
SYMATTR InstName R1
SYMATTR Value 2.5
SYMBOL res 352 32 R0
SYMATTR InstName R2
SYMATTR Value 619k
SYMBOL res 352 128 R0
SYMATTR InstName R3
SYMATTR Value 84.5k
SYMBOL PowerProducts\\LTC3624 64 688 R0
SYMATTR InstName U2
SYMBOL cap -224 592 R0
SYMATTR InstName C4
SYMATTR Value 10µ
SYMBOL cap 448 592 R0
WINDOW 3 17 60 Left 2
SYMATTR InstName C5
SYMATTR Value 47µ
SYMBOL ind 224 608 R270
WINDOW 0 32 56 VTop 2
WINDOW 3 5 56 VBottom 2
SYMATTR InstName L2
SYMATTR Value 5µ
SYMBOL cap -144 800 R0
SYMATTR InstName C6
SYMATTR Value 2.2µ
SYMBOL res 512 576 R0
SYMATTR InstName R4
SYMATTR Value 2.5
SYMBOL res 352 592 R0
SYMATTR InstName R5
SYMATTR Value 380k
SYMBOL res 352 688 R0
SYMATTR InstName R6
SYMATTR Value 84.5k
TEXT -338 360 Left 2 !.tran 500u
TEXT -338 920 Left 2 !;tran 500u
TEXT -16 -136 Left 2 ;5V
TEXT 0 456 Left 2 ;3.3V
